.subckt nor3 in1 in2 in3 out Vdd
.include ./nor2.sub

X1 in1 in2 o1 Vdd nor2
X2 o1 o1 o2 Vdd nor2
X3 o2 in3 out Vdd nor2

.ends 


